data/case3375wp_modified.m
function mpc = case3375wp_modified
%   SALT variant of case3375wp, generated by build_timing_cases.m:
%     - 383 transformer ratios set to 1 (as consistent with ParaEMT,
%       NREL's open-source EMT simulator, which reads the tap ratio
%       from the power flow but never uses it - its transformers are
%       stamped as a plain series R-L; see lib_numba.py "R-L model
%       xfmr", where xfmr_k is stored and never consumed. M. Xiong et
%       al., IEEE Trans. Power Del., vol. 39, no. 2, 2024), 2 phase
%       shifts set to 0
%     - 771 branches reclassified from PI line to series R-L (their own
%       data has no resistance, no charging, or capacitive reactance,
%       so a PI line cannot describe them); impedances unchanged
%     - 316 line ratings set to 9999 MVA, standing in for MATPOWER's
%       "0 = unlimited" (not a real thermal limit)
%     - 117 generators dropped (offline or zero injection), 87 lumped
%       onto shared buses, 49 buses demoted PV -> PQ
%     - the case below is RE-SOLVED for this modified network in SALT, 
%       which can differ from MATPOWER file as-shipped for two reasons: the
%       source case is not itself a solved snapshot, and setting the tap
%       ratios to 1 moves the operating point again. Impedances,
%       loads, limits, shunts, bus types and areas are unchanged.
%
%CASE3375WP_MODIFIED

%% MATPOWER Case Format : Version 2
mpc.version = '2';

%%-----  Power Flow Data  -----%%
%% system MVA base
mpc.baseMVA = 100;

%% bus data
%	bus_i	type	Pd	Qd	Gs	Bs	area	Vm	Va	baseKV	zone	Vmax	Vmin
mpc.bus = [
	10000	1	0	0	0	0	0	1.0469312	-10.4701573	400	0	1.05	0.95;
	10001	1	0	0	0	0	0	1.07209605	-14.677462	400	0	1.05	0.95;
	10002	1	0	0	0	0	0	1.07096969	-16.5369016	220	0	1.11	0.95;
	10003	1	0	0	0	0	0	1.0610762	-17.4383818	400	0	1.05	0.95;
	10004	1	0	0	0	0	0	1.0537459	-13.6477417	400	0	1.05	0.95;
	10005	1	0	0	0	0	0	1.0673722	-16.0870991	400	0	1.05	0.95;
	10006	1	0	0	0	0	0	1.06052296	-9.63207828	400	0	1.05	0.95;
	10007	1	0	0	0	0	0	1.07490987	-15.5295174	220	0	1.11	0.95;
	10008	1	0	0	0	0	0	1.06569301	-17.6117486	220	0	1.11	0.95;
	10009	1	0	0	0	0	0	1.06243302	-16.8231855	400	0	1.05	0.95;
	10010	1	0	0	0	0	0	1.04431695	-11.6754832	400	0	1.05	0.95;
	10011	1	0	0	0	0	0	1.06302669	-18.1199049	400	0	1.05	0.95;
	10012	1	0	0	0	0	0	1.06302669	-18.1199049	400	0	1.05	0.95;
	10013	1	0	0	0	0	0	1.05363045	-11.8944347	400	0	1.05	0.95;
	10014	1	0	0	0	0	0	1.05373241	-11.9250675	400	0	1.05	0.95;
	10015	1	0	0	0	0	0	1.0399392	-17.6165339	400	0	1.05	0.95;
	10016	1	0	0	0	0	0	1.0535708	-11.8132213	400	0	1.05	0.95;
	10017	1	0	0	0	0	0	1.05351102	-11.8174869	400	0	1.05	0.95;
	10018	1	0	0	0	0	0	1.05348315	-11.8103483	400	0	1.05	0.95;
	10019	1	0	0	0	0	0	1.0537378	-11.9250992	400	0	1.05	0.95;
	10020	1	0	0	0	0	0	1.06845791	-13.723505	400	0	1.05	0.95;
	10021	1	0	0	0	0	0	1.06475538	-16.0882207	220	0	1.11	0.95;
	10022	1	0	0	0	0	0	1.066447	-16.5473419	220	0	1.11	0.95;
	10023	1	0	0	0	0	0	1.07258173	-11.5141656	400	0	1.05	0.95;
	10024	1	0	0	0	0	0	1.07111516	-11.6018883	400	0	1.05	0.95;
	10025	1	0	0	0	0	0	1.0725727	-11.5585036	400	0	1.05	0.95;
	10026	1	0	0	0	0	0	1.05907399	-7.8367429	400	0	1.05	0.95;
	10027	1	0	0	0	0	0	1.04970015	-7.51395107	400	0	1.05	0.95;
	10028	1	0	0	0	0	0	1.06601846	-7.42240747	400	0	1.05	0.95;
	10029	1	0	0	0	0	0	1.03709951	-11.0913076	400	0	1.05	0.95;
	10030	1	0	0	0	0	0	1.03702245	-11.0860062	400	0	1.05	0.95;
	10031	1	0	0	0	0	0	1.09267912	-11.2698963	220	0	1.11	0.95;
	10032	1	0	0	0	0	0	1.05595652	-7.83285881	400	0	1.05	0.95;
	10033	1	0	0	0	0	0	1.05858747	-7.85064752	400	0	1.05	0.95;
	10034	1	0	0	0	0	0	1.05502263	-13.8114972	400	0	1.05	0.95;
	10035	1	0	0	0	0	0	1.07947088	-12.0603592	220	0	1.11	0.95;
	10036	1	0	0	0	0	0	1.07951557	-12.0678932	220	0	1.11	0.95;
	10037	1	0	0	0	0	0	1.05726232	-7.93676242	400	0	1.05	0.95;
	10038	1	0	0	0	0	0	1.05735835	-7.94456843	400	0	1.05	0.95;
	10039	1	0	0	0	0	0	1.05559816	-7.95367529	400	0	1.05	0.95;
	10040	1	0	0	0	0	0	1.06110956	-12.7182997	400	0	1.05	0.95;
	10041	1	0	0	0	0	0	1.03896618	-11.2355141	400	0	1.05	0.95;
	10042	1	0	0	0	0	0	1.04833935	-18.3164142	400	0	1.05	0.95;
	10043	1	0	0	0	0	0	1.06496603	-13.9153651	220	0	1.11	0.95;
	10044	1	0	0	0	0	0	1.07305083	-13.0707659	220	0	1.11	0.95;
	10045	1	0	0	0	0	0	1.06349957	-18.4913787	220	0	1.11	0.95;
	10046	1	0	0	0	0	0	1.06640685	-16.5468506	220	0	1.11	0.95;
	10047	1	0	0	0	0	0	1.04769858	-19.1862312	400	0	1.05	0.95;
	10048	1	0	0	0	0	0	1.04613586	-10.9609019	400	0	1.05	0.95;
	10049	1	0	0	0	0	0	1.04901188	-11.4590513	400	0	1.05	0.95;
	10050	1	0	0	0	0	0	1.03896618	-11.2355141	400	0	1.05	0.95;
	10051	1	0	0	0	0	0	1.06331715	-18.2475221	220	0	1.11	0.95;
	10052	1	0	0	0	0	0	1.05830823	-16.0640589	400	0	1.05	0.95;
	10053	1	0	0	0	0	0	1.09727499	-10.7446084	220	0	1.11	0.95;
	10054	1	0	0	0	0	0	1.09727499	-10.7446084	220	0	1.11	0.95;
	10055	1	0	0	0	0	0	1.08062584	-14.5395503	220	0	1.11	0.95;
	10056	1	0	0	0	0	0	1.05473442	-9.83759124	400	0	1.05	0.95;
	10057	1	0	0	0	0	0	1.05194355	-8.84498006	400	0	1.05	0.95;
	10058	1	0	0	0	0	0	1.0636577	-16.4032987	220	0	1.11	0.95;
	10059	1	0	0	0	0	0	1.05976528	-15.4762819	400	0	1.05	0.95;
	10060	1	0	0	0	0	0	1.05731033	-7.9406656	400	0	1.05	0.95;
	10061	1	0	0	0	0	0	1.05473442	-9.83759124	400	0	1.05	0.95;
	10062	1	0	0	0	0	0	1.07669124	-15.4112866	400	0	1.05	0.95;
	10063	1	0	0	0	0	0	1.0537293	-11.9250551	400	0	1.05	0.95;
	10064	1	0	0	0	0	0	1.06820182	-15.956148	220	0	1.11	0.95;
	10065	1	0	0	0	0	0	1.05546514	-13.219099	400	0	1.05	0.95;
	10066	1	0	0	0	0	0	1.05487825	-11.9097943	400	0	1.05	0.95;
	10067	1	0	0	0	0	0	1.06634686	-15.071773	220	0	1.11	0.95;
	10068	1	0	0	0	0	0	1.0556599	-12.8080619	400	0	1.05	0.95;
	10069	1	0	0	0	0	0	1.06307575	-18.8263459	220	0	1.11	0.95;
	10070	1	0	0	0	0	0	1.06298014	-18.1196556	400	0	1.05	0.95;
	10071	2	16	8	0	0	0	1.07617	-14.8793267	220	0	1.11	0.95;
	10072	1	0	0	0	0	0	1.09209811	-11.4468739	220	0	1.11	0.95;
	10073	1	0	0	0	0	1	1.07937645	-13.017628	220	0	1.11	0.95;
	10074	1	0	0	0	0	0	1.07881834	-12.9965137	220	0	1.11	0.95;
	10075	1	0	0	0	0	0	1.07653641	-13.8066653	220	0	1.11	0.95;
	10076	1	0	0	0	0	0	1.07110365	-11.601826	400	0	1.05	0.95;
	10077	1	0	0	0	0	0	1.07110365	-11.601826	400	0	1.05	0.95;
	10078	1	305.5	-14	0	0	0	1.04611215	-7.92832872	400	0	1.05	0.95;
	10079	2	-1529.6	4542.9	0	0	0	1.01319	0.299043728	400	0	1.05	0.95;
	10080	2	-159.1	-181	0	0	0	1.02855	-4.41483615	400	0	1.05	0.95;
	10081	1	-1078.3	-374.1	0	0	0	1.035892	-0.524585988	400	0	1.05	0.95;
	10082	1	943.2	310.2	0	0	0	1.01020164	-4.11207089	400	0	1.05	0.95;
	10083	1	97	26	0	0	0	1.04115939	-4.94583552	400	0	1.05	0.95;
	10084	1	0.6	160	0	0	0	1.04148785	-4.78030032	400	0	1.05	0.95;
	10085	1	161.6	183.6	0	0	0	1.04075242	-4.91314819	400	0	1.05	0.95;
	10086	1	288.6	221.6	0	0	0	1.0407409	-4.91582035	400	0	1.05	0.95;
	10087	1	0	0	0	0	0	1.04225603	-4.67322662	400	0	1.05	0.95;
	10088	1	0	0	0	0	0	1.03597545	-5.07123419	220	0	1.11	0.95;
	10089	1	0	0	0	0	0	1.03362266	-5.2095346	220	0	1.11	0.95;
	10090	2	274.4	279.6	0	0	0	1.04139	-4.93588977	400	0	1.05	0.95;
	10091	1	94.2	111.8	0	0	0	1.04115557	-4.97230357	400	0	1.05	0.95;
	10092	1	0	0	0	0	0	1.03197435	-5.29485311	220	0	1.11	0.95;
	10093	1	0	0	0	0	0	1.03476189	-5.13434435	220	0	1.11	0.95;
	10094	2	0	0	0	0	0	1.03526	-4.17470997	400	0	1.05	0.95;
	10095	2	4.4	-2590.1	0	0	0	1.02969	-5.56046113	400	0	1.05	0.95;
	10096	1	488	79.1	0	0	0	1.02127107	-5.77040282	400	0	1.05	0.95;
	10097	1	601	147.9	0	0	0	1.02468078	-5.67905228	400	0	1.05	0.95;
	10098	1	527	265.1	0	0	0	1.02591549	-4.95957671	400	0	1.05	0.95;
	10099	1	0	0	0	0	0	1.00604121	-2.06942242	400	0	1.05	0.95;
	10100	2	0	0	0	0	0	1.04073	-0.487369562	400	0	1.05	0.95;
	10101	1	0	0	0	0	0	1.0396701	-14.5372938	220	0	1.11	0.95;
	10102	1	120	25	0	0	0	1.03439512	-7.99404825	220	0	1.11	0.95;
	10103	1	0	0	0	0	0	1.03970873	-2.95370514	400	0	1.05	0.95;
	10104	2	200.2	48.7	0	0	0	1.04409	-1.83833252	400	0	1.05	0.95;
	10105	1	0	0	0	0	0	1.01364241	-7.71612252	220	0	1.11	0.95;
	10106	1	0	0	0	0	0	1.03594374	-4.16323082	400	0	1.05	0.95;
	10107	1	0	0	0	0	0	1.04178634	-2.59141185	400	0	1.05	0.95;
	10108	1	0	0	0	0	0	1.04237759	-2.27280957	400	0	1.05	0.95;
	10109	1	0	0	0	0	0	1.04176008	-2.51461757	400	0	1.05	0.95;
	10110	1	0	0	0	0	0	1.04237466	-2.19178279	400	0	1.05	0.95;
	10111	1	0	0	0	0	0	1.02792702	-1.4263897	400	0	1.05	0.95;
	10112	1	0	0	0	0	0	1.00570576	-4.6308664	220	0	1.11	0.95;
	10113	1	0	0	0	0	0	1.02034989	-2.08652385	400	0	1.05	0.95;
	10114	1	0	0	0	0	0	1.00847129	-6.90479157	220	0	1.11	0.95;
	10115	2	0	0	0	0	0	1.00234	-1.84114811	400	0	1.05	0.95;
	10116	2	0	0	0	0	0	1.00234	-1.84114811	400	0	1.05	0.95;
	10117	1	0	0	0	0	0	1.0319732	-4.88894796	400	0	1.05	0.95;
	10118	2	0	0	0	0	0	1.04097	-0.129014489	400	0	1.05	0.95;
	10119	1	0	0	0	0	0	1.01703284	-2.9414222	400	0	1.05	0.95;
	10120	1	0	0	0	0	0	1.03956125	-3.44557902	400	0	1.05	0.95;
	10121	1	80	20	0	0	0	1.0410679	-7.39032958	220	0	1.11	0.95;
	10122	1	0	0	0	0	0	0.988573915	-10.2071776	220	0	1.11	0.95;
	10123	1	0	0	0	0	0	1.0489114	-3.43724259	400	0	1.05	0.95;
	10124	1	0	0	0	0	0	1.04975153	-0.313884074	400	0	1.05	0.95;
	10125	1	0	0	0	0	0	1.01309278	-3.95502016	400	0	1.05	0.95;
	10126	2	0	0	0	0	0	1.00802	-3.11561399	400	0	1.05	0.95;
	10127	1	0	0	0	0	0	1.00621578	-7.20998963	220	0	1.11	0.95;
	10128	1	0	0	0	0	0	1.00621578	-7.20998963	220	0	1.11	0.95;
	10129	2	0.2	100	0	0	0	1.04538	0.654704216	400	0	1.05	0.95;
	10130	1	0	0	0	0	0	1.04545706	0.628279072	400	0	1.05	0.95;
	10131	1	0	0	0	0	0	1.00979583	-3.61559075	400	0	1.05	0.95;
	10132	2	0	0	0	0	0	1.02908	-4.25223516	400	0	1.05	0.95;
	10133	1	0	0	0	0	0	1.04878419	-3.64112059	400	0	1.05	0.95;
	10134	1	0	0	0	0	0	1.04559258	-4.2604054	400	0	1.05	0.95;
	10135	1	0	0	0	0	0	1.04852314	-6.97504024	220	0	1.11	0.95;
	10136	1	0	0	0	0	0	1.02114838	-7.36536628	220	0	1.11	0.95;
	10137	1	0	0	0	0	0	1.03879313	-17.1716225	220	0	1.11	0.95;
	10138	1	0	0	0	0	0	1.03380982	-4.6710146	400	0	1.05	0.95;
	10139	2	0	0	0	0	0	1.03742	-1.36478623	400	0	1.05	0.95;
	10140	2	0	0	0	0	0	1.03856	-0.881140524	400	0	1.05	0.95;
	10141	2	0	0	0	0	0	1.01264	-1.19137	400	0	1.05	0.95;
	10142	1	0	0	0	0	0	1.03722499	-4.38681806	400	0	1.05	0.95;
	10143	1	0	0	0	0	0	1.03703092	-2.62173562	400	0	1.05	0.95;
	10144	1	0	0	0	0	0	1.03705113	-2.6205769	400	0	1.05	0.95;
	10145	1	0	0	0	0	0	1.01930162	-3.4378828	400	0	1.05	0.95;
	10146	2	0	0	0	0	0	1.04296	-3.2761982	220	0	1.11	0.95;
	10147	1	0	0	0	0	0	1.0352828	-5.0920963	400	0	1.05	0.95;
	10148	1	0	0	0	0	0	1.02323595	-6.99953822	220	0	1.11	0.95;
	10149	1	0	0	0	0	0	1.02323013	-7.00245123	220	0	1.11	0.95;
	10150	2	0	0	0	0	0	1.04015	-2.82775779	400	0	1.05	0.95;
	10151	1	0	0	0	0	0	1.04208378	-2.7777049	400	0	1.05	0.95;
	10152	1	0	0	0	0	0	1.04661785	-0.82693713	400	0	1.05	0.95;
	10153	1	0	0	0	0	0	1.03261656	-2.45026443	400	0	1.05	0.95;
	10154	1	80	20	0	0	0	1.03598294	-4.01387987	220	0	1.11	0.95;
	10155	1	0	0	0	0	0	0.998869831	-7.38226888	220	0	1.11	0.95;
	10156	1	0	0	0	0	0	1.03320046	-4.75582255	400	0	1.05	0.95;
	10157	1	0	0	0	0	0	1.0343237	-5.04799941	220	0	1.11	0.95;
	10158	1	0	0	0	0	0	1.01636027	-2.5810929	400	0	1.05	0.95;
	10159	1	0	0	0	0	0	1.00786418	-4.46416449	220	0	1.11	0.95;
	10160	1	0	0	0	0	0	1.06419981	-18.495718	220	0	1.11	0.95;
	10161	1	0	0	0	0	0	1.0259042	-4.37272318	400	0	1.05	0.95;
	10162	1	0	0	0	0	0	0.998383666	-9.21906321	220	0	1.11	0.95;
	10163	1	0	0	0	0	0	0.995215018	-7.48494258	220	0	1.11	0.95;
	10164	1	0	0	0	0	0	1.02896897	-4.45833602	400	0	1.05	0.95;
	10165	1	0	0	0	0	0	1.03796522	-5.24452068	400	0	1.05	0.95;
	10166	1	0	0	0	0	0	1.04201638	-6.97951702	220	0	1.11	0.95;
	10167	1	0	0	0	0	0	1.03061335	-4.75200874	400	0	1.05	0.95;
	10168	1	0	0	0	0	0	1.03061335	-4.75200874	400	0	1.05	0.95;
	10169	1	0	0	0	0	0	1.03096779	-4.70569346	400	0	1.05	0.95;
	10170	1	0	0	0	0	0	1.03096779	-4.70569346	400	0	1.05	0.95;
	10171	2	-104.8	-159	0	0	0	1.02955	-4.17009797	400	0	1.05	0.95;
	10172	1	247.4	-57.5	0	0	0	1.02971563	-5.56494655	400	0	1.05	0.95;
	10173	1	247.4	-57.5	0	0	0	1.02971563	-5.56494655	400	0	1.05	0.95;
	10174	1	371.5	403.5	0	0	0	1.0206132	-5.79191123	400	0	1.05	0.95;
	10176	2	-249.9	162.6	0	0	0	1.02979	-4.3275273	400	0	1.05	0.95;
	10177	2	-249.9	162.6	0	0	0	1.02979	-4.3275273	400	0	1.05	0.95;
	10178	1	52.5	207.2	0	0	0	1.02752369	-10.1214416	400	0	1.05	0.95;
	10179	1	379.5	54.6	0	0	0	1.03939488	-12.8976537	400	0	1.05	0.95;
	10180	1	73.6	-95.6	0	0	0	1.09060904	-16.4218032	220	0	1.11	0.95;
	10181	1	73.6	-95.6	0	0	0	1.09060904	-16.4218032	220	0	1.11	0.95;
	10182	1	107.2	-44.4	0	0	0	1.05640768	-12.3960986	400	0	1.05	0.95;
	10183	1	86	8	0	0	0	1.04977459	-10.1612769	400	0	1.05	0.95;
	10184	1	70	49	0	0	0	1.04737558	-14.0613217	220	0	1.11	0.95;
	10185	1	0	0	0	0	0	1.04948157	-12.399477	400	0	1.05	0.95;
	10186	2	0	0	0	0	0	1.08932	-7.33399291	220	0	1.11	0.95;
	10187	2	0	0	0	0	0	1.0894	-7.30047388	220	0	1.11	0.95;
	10188	2	0	0	0	0	0	1.04594	-8.82378532	400	0	1.05	0.95;
	10189	2	10.2	0	0	0	0	1.04556	-10.0528165	400	0	1.05	0.95;
	10190	2	0	0	0	0	0	1.04288	-9.66235534	400	0	1.05	0.95;
	10191	2	0	0	0	0	0	1.04288	-9.65694	400	0	1.05	0.95;
	10192	2	0	0	0	0	0	1.04073	-10.7700913	220	0	1.11	0.95;
	10193	1	0	0	0	0	0	1.04072643	-10.7724026	220	0	1.11	0.95;
	10194	2	0	0	0	0	0	1.03584	-9.11913593	400	0	1.05	0.95;
	10195	1	0	0	0	0	0	1.0366163	-9.15816199	400	0	1.05	0.95;
	10196	2	0	0	0	0	0	1.04091	-12.3728478	400	0	1.05	0.95;
	10197	1	295	51.9	0	0	0	1.04408818	-11.9421667	400	0	1.05	0.95;
	10198	1	0	0	0	0	0	1.05010017	-10.5684731	400	0	1.05	0.95;
	10199	1	308	40	0	0	0	1.07255843	-9.7983681	220	0	1.11	0.95;
	10200	1	0	0	0	0	0	1.07263075	-9.78138323	220	0	1.11	0.95;
...
];

%% generator data
%	bus	Pg	Qg	Qmax	Qmin	Vg	mBase	status	Pmax	Pmin	Pc1	Pc2	Qc1min	Qc1max	Qc2min	Qc2max	ramp_agc	ramp_10	ramp_30	ramp_q	apf
mpc.gen = [
	10071	133.9	-0.182683158	Inf	-Inf	1.07617	285	1	204.6	133.9	0	0	0	0	0	0	0	0	0	0	0;
	10079	359.9	4286.04319	Inf	-Inf	1.01319	2031	1	549.9	359.9	0	0	0	0	0	0	0	0	0	0	0;
	10080	7.6	-365.760832	Inf	-Inf	1.02855	119	1	11.6	7.6	0	0	0	0	0	0	0	0	0	0	0;
	10090	410.4	180.755761	Inf	-Inf	1.04139	806	1	627	410.4	0	0	0	0	0	0	0	0	0	0	0;
	10094	554.4	10093.9096	Inf	-Inf	1.03526	970	1	847	554.4	0	0	0	0	0	0	0	0	0	0	0;
	10095	121.8	-2578.79893	Inf	-Inf	1.02969	1439	1	1241.5	121.8	0	0	0	0	0	0	0	0	0	0	0;
	10100	1267.2	-157.444226	Inf	-Inf	1.04073	2202	1	1936	1267.2	0	0	0	0	0	0	0	0	0	0	0;
	10104	540	57.2219681	Inf	-Inf	1.04409	939	1	825	540	0	0	0	0	0	0	0	0	0	0	0;
	10115	280.8	-325.293299	Inf	-Inf	1.00234	492	1	429	280.8	0	0	0	0	0	0	0	0	0	0	0;
	10116	280.8	-325.293299	Inf	-Inf	1.00234	492	1	429	280.8	0	0	0	0	0	0	0	0	0	0	0;
	10118	1080	61.2850513	Inf	-Inf	1.04097	1876	1	1650	1080	0	0	0	0	0	0	0	0	0	0	0;
	10126	424.8	-481.218615	Inf	-Inf	1.00802	786	1	649	424.8	0	0	0	0	0	0	0	0	0	0	0;
	10129	1656	-414.468926	Inf	-Inf	1.04538	2974	1	2530	1656	0	0	0	0	0	0	0	0	0	0	0;
	10132	583.2	-206.279698	Inf	-Inf	1.02908	1014	1	891	583.2	0	0	0	0	0	0	0	0	0	0	0;
	10139	648	-223.589978	Inf	-Inf	1.03742	1143	1	990	648	0	0	0	0	0	0	0	0	0	0	0;
	10140	972	-211.307333	Inf	-Inf	1.03856	1705	1	1485	972	0	0	0	0	0	0	0	0	0	0	0;
	10141	1224	-556.760317	Inf	-Inf	1.01264	2125	1	1870	1224	0	0	0	0	0	0	0	0	0	0	0;
	10146	115.2	259.685929	Inf	-Inf	1.04296	224	1	176	115.2	0	0	0	0	0	0	0	0	0	0	0;
	10150	201.6	13.8840537	Inf	-Inf	1.04015	427	1	308	201.6	0	0	0	0	0	0	0	0	0	0	0;
	10171	84.6	-9952.20904	Inf	-Inf	1.02955	715	1	129.3	84.6	0	0	0	0	0	0	0	0	0	0	0;
	10176	191	281.374992	Inf	-Inf	1.02979	346	1	291.8	191	0	0	0	0	0	0	0	0	0	0	0;
	10177	191	281.374992	Inf	-Inf	1.02979	346	1	291.8	191	0	0	0	0	0	0	0	0	0	0	0;
	10186	342.7	91.5984486	Inf	-Inf	1.08932	618	1	534.6	342.7	0	0	0	0	0	0	0	0	0	0	0;
	10187	342.7	90.9092442	Inf	-Inf	1.0894	618	1	534.6	342.7	0	0	0	0	0	0	0	0	0	0	0;
	10188	347.8	-93.1930025	Inf	-Inf	1.04594	618	1	531.3	347.8	0	0	0	0	0	0	0	0	0	0	0;
	10189	283	-165.159774	Inf	-Inf	1.04556	620	1	542.3	283	0	0	0	0	0	0	0	0	0	0	0;
	10190	371.5	-27.4386058	Inf	-Inf	1.04288	683	1	600.6	371.5	0	0	0	0	0	0	0	0	0	0	0;
	10191	370.8	-28.1770316	Inf	-Inf	1.04288	682	1	599.5	370.8	0	0	0	0	0	0	0	0	0	0	0;
	10192	111.6	17.8148588	Inf	-Inf	1.04073	281	1	247.5	111.6	0	0	0	0	0	0	0	0	0	0	0;
	10194	64.8	-85.481809	Inf	-Inf	1.03584	184	1	143	64.8	0	0	0	0	0	0	0	0	0	0	0;
	10196	108	-93.5030335	Inf	-Inf	1.04091	215	1	165	108	0	0	0	0	0	0	0	0	0	0	0;
	10223	125.5	189.763712	Inf	-Inf	1.04073	189	1	125.5	0	0	0	0	0	0	0	0	0	0	0	0;
	10225	77.8	164.808652	Inf	-Inf	1.06248	333	1	272.8	77.8	0	0	0	0	0	0	0	0	0	0	0;
	10226	34.6	130.472766	Inf	-Inf	1.06441	198	1	140.8	34.6	0	0	0	0	0	0	0	0	0	0	0;
	10227	11.5	239.103991	Inf	-Inf	1.10423	191	1	17.6	11.5	0	0	0	0	0	0	0	0	0	0	0;
	10228	18.7	136.200882	Inf	-Inf	1.06247	135	1	28.6	18.7	0	0	0	0	0	0	0	0	0	0	0;
	10229	39.6	27.4022634	Inf	-Inf	1.06902	85	1	60.5	39.6	0	0	0	0	0	0	0	0	0	0	0;
	10230	0	-46.0313219	Inf	-Inf	1.07323	132	1	0.1	0	0	0	0	0	0	0	0	0	0	0	0;
	10232	11.2	-3.12236598	Inf	-Inf	1.01987	64	1	17.2	11.2	0	0	0	0	0	0	0	0	0	0	0;
	10233	45.4	86.2768336	Inf	-Inf	1.04665	79	1	69.3	45.4	0	0	0	0	0	0	0	0	0	0	0;
	10234	3.6	214.330482	Inf	-Inf	1.09129	115	1	5.5	3.6	0	0	0	0	0	0	0	0	0	0	0;
	10235	28.8	18.1140183	Inf	-Inf	1.08091	83	1	44	28.8	0	0	0	0	0	0	0	0	0	0	0;
	10236	119.5	189.987845	Inf	-Inf	1.07896	219	1	182.6	119.5	0	0	0	0	0	0	0	0	0	0	0;
	10237	50.4	388.115717	Inf	-Inf	1.08023	121	1	77	50.4	0	0	0	0	0	0	0	0	0	0	0;
	10238	61.9	-21.5320975	Inf	-Inf	1.00809	179	1	94.6	61.9	0	0	0	0	0	0	0	0	0	0	0;
	10239	62.6	159.280187	Inf	-Inf	1.06246	109	1	95.7	62.6	0	0	0	0	0	0	0	0	0	0	0;
	10240	0	-63.0503155	Inf	-Inf	1.0666	128	1	0.1	0	0	0	0	0	0	0	0	0	0	0	0;
	10246	146.2	-24.8644039	Inf	-Inf	1.03917	262	1	223.3	146.2	0	0	0	0	0	0	0	0	0	0	0;
	10247	102.2	64.4553374	Inf	-Inf	1.12	215	1	156.2	102.2	0	0	0	0	0	0	0	0	0	0	0;
	10248	122.4	84.0211363	Inf	-Inf	1.12	241	1	187	122.4	0	0	0	0	0	0	0	0	0	0	0;
	10249	128	-103.852283	Inf	-Inf	1.00179	225	1	195.6	128	0	0	0	0	0	0	0	0	0	0	0;
	10250	374.4	-25.9672249	Inf	-Inf	1.0404	650	1	572	374.4	0	0	0	0	0	0	0	0	0	0	0;
	10251	374.4	-27.4300135	Inf	-Inf	1.03995	650	1	572	374.4	0	0	0	0	0	0	0	0	0	0	0;
	10252	374.4	-27.360676	Inf	-Inf	1.03994	650	1	572	374.4	0	0	0	0	0	0	0	0	0	0	0;
	10253	187.9	-213.739847	Inf	-Inf	1.01534	341	1	287.1	187.9	0	0	0	0	0	0	0	0	0	0	0;
	10254	342.7	-64.391419	Inf	-Inf	1.04999	598	1	523.6	342.7	0	0	0	0	0	0	0	0	0	0	0;
	10255	121	-41.5414989	Inf	-Inf	1.03994	210	1	184.8	121	0	0	0	0	0	0	0	0	0	0	0;
	10256	280.8	212.980436	Inf	-Inf	1.11998	489	1	429	280.8	0	0	0	0	0	0	0	0	0	0	0;
	10257	140.4	196.786485	Inf	-Inf	1.11817	250	1	214.5	140.4	0	0	0	0	0	0	0	0	0	0	0;
	10258	129.6	101.533199	Inf	-Inf	1.10518	230	1	198	129.6	0	0	0	0	0	0	0	0	0	0	0;
	10259	283.7	-258.693175	Inf	-Inf	0.98182	519	1	433.4	283.7	0	0	0	0	0	0	0	0	0	0	0;
	10260	425.5	320.525002	Inf	-Inf	1.10941	741	1	650.1	425.5	0	0	0	0	0	0	0	0	0	0	0;
	10261	579.6	-336.771444	Inf	-Inf	0.99592	1100	1	951.5	579.6	0	0	0	0	0	0	0	0	0	0	0;
	10262	579.6	-336.05517	Inf	-Inf	0.99592	1100	1	951.5	579.6	0	0	0	0	0	0	0	0	0	0	0;
	10263	67.7	3.11595475	Inf	-Inf	1.09219	121	1	103.4	67.7	0	0	0	0	0	0	0	0	0	0	0;
	10264	280.8	-185.326431	Inf	-Inf	1.00552	489	1	429	280.8	0	0	0	0	0	0	0	0	0	0	0;
	10265	280.8	192.808893	Inf	-Inf	1.10573	496	1	429	280.8	0	0	0	0	0	0	0	0	0	0	0;
	10266	3.6	-3.69249292	Inf	-Inf	1.04403	72	1	5.5	3.6	0	0	0	0	0	0	0	0	0	0	0;
	10267	4.3	144.153071	Inf	-Inf	1.08131	120	1	6.6	4.3	0	0	0	0	0	0	0	0	0	0	0;
	10268	20.9	124.232057	Inf	-Inf	1.06395	37	1	31.9	20.9	0	0	0	0	0	0	0	0	0	0	0;
	10269	68.4	127.870302	Inf	-Inf	1.07428	338	1	291.5	68.4	0	0	0	0	0	0	0	0	0	0	0;
	10270	0	24.3910934	Inf	-Inf	1.05973	40	1	0.1	0	0	0	0	0	0	0	0	0	0	0	0;
	10271	156.2	87.8966385	Inf	-Inf	1.06494	286	1	238.7	156.2	0	0	0	0	0	0	0	0	0	0	0;
	10272	24.5	33.1342398	Inf	-Inf	1.072	116	1	37.4	24.5	0	0	0	0	0	0	0	0	0	0	0;
	10273	165.6	-4.85752646	Inf	-Inf	1.02431	321	1	253	165.6	0	0	0	0	0	0	0	0	0	0	0;
	10274	61.2	145.649772	Inf	-Inf	1.06504	317	1	225.5	61.2	0	0	0	0	0	0	0	0	0	0	0;
	10275	21.6	32.5125802	Inf	-Inf	1.06182	125	1	110	21.6	0	0	0	0	0	0	0	0	0	0	0;
	10276	107.3	24.1984828	Inf	-Inf	1.06034	189	1	163.9	107.3	0	0	0	0	0	0	0	0	0	0	0;
	10277	80.6	191.014495	Inf	-Inf	1.06264	225	1	123.2	80.6	0	0	0	0	0	0	0	0	0	0	0;
	10278	129.6	41.0913721	Inf	-Inf	1.11356	233	1	198	129.6	0	0	0	0	0	0	0	0	0	0	0;
	10279	129.6	41.0913721	Inf	-Inf	1.11356	233	1	198	129.6	0	0	0	0	0	0	0	0	0	0	0;
	10281	2.9	24.4863783	Inf	-Inf	1.07868	20	1	4.4	2.9	0	0	0	0	0	0	0	0	0	0	0;
	10282	58.3	131.296733	Inf	-Inf	1.06767	357	1	287.1	58.3	0	0	0	0	0	0	0	0	0	0	0;
	10284	418.3	733.209805	Inf	-Inf	1.12	919	1	771.1	418.3	0	0	0	0	0	0	0	0	0	0	0;
	10285	0	52.8163897	Inf	-Inf	1.0574	132	1	0.1	0	0	0	0	0	0	0	0	0	0	0	0;
	10288	20.9	-6.26133283	Inf	-Inf	1.03369	63	1	31.9	20.9	0	0	0	0	0	0	0	0	0	0	0;
	10289	0.7	-35.3275592	Inf	-Inf	1.05256	41	1	34.1	0.7	0	0	0	0	0	0	0	0	0	0	0;
	10290	28.1	33.1589302	Inf	-Inf	1.06119	49	1	42.9	28.1	0	0	0	0	0	0	0	0	0	0	0;
	10291	5.8	129.480904	Inf	-Inf	1.08362	71	1	8.8	5.8	0	0	0	0	0	0	0	0	0	0	0;
	10292	312.5	139.332089	Inf	-Inf	1.08678	638	1	477.4	312.5	0	0	0	0	0	0	0	0	0	0	0;
	10293	19.4	20.3270024	Inf	-Inf	1.07356	46	1	29.7	19.4	0	0	0	0	0	0	0	0	0	0	0;
	10294	7.9	23.1731277	Inf	-Inf	1.08819	74	1	12.1	7.9	0	0	0	0	0	0	0	0	0	0	0;
	10295	151.9	-27.1813547	Inf	-Inf	0.99474	299	1	232.1	151.9	0	0	0	0	0	0	0	0	0	0	0;
	10296	197.3	125.935301	Inf	-Inf	1.08634	461	1	301.4	197.3	0	0	0	0	0	0	0	0	0	0	0;
	24	110	29.9819008	140	-49	1.07767	235.3	1	221	110	0	0	0	0	0	0	0	0	0	0	0;
	25	135	-74.4002236	124	-22	1.0776	235.3	1	200	135	0	0	0	0	0	0	0	0	0	0	0;
	37	747.80917	433.32555	380	-38	1.11	852	1	740	480	0	0	0	0	0	0	0	0	0	0	0;
	38	740	415.54431	380	-38	1.11	852	1	740	480	0	0	0	0	0	0	0	0	0	0	0;
	39	370	108.21019	190	-19	1.11	426	1	370	240	0	0	0	0	0	0	0	0	0	0	0;
	40	1110	-432.807483	570	-57	1.04756	1278	1	1110	720	0	0	0	0	0	0	0	0	0	0	0;
	41	1110	-349.790558	570	-57	1.04755	1278	1	1110	720	0	0	0	0	0	0	0	0	0	0	0;
	57	281.6	161.385656	304	-66	1.10991	470	1	435	235	0	0	0	0	0	0	0	0	0	0	0;
	58	235	47.8082645	298	-66	1.1097	470	1	450	235	0	0	0	0	0	0	0	0	0	0	0;
	59	225	405.292315	149	-33	1.11	235	1	225	110	0	0	0	0	0	0	0	0	0	0	0;
	60	535	-12.034721	363	-47	1.05	588	1	535	255	0	0	0	0	0	0	0	0	0	0	0;
	61	278.8	-506.335598	348	-100	1.04992	588	1	560	250	0	0	0	0	0	0	0	0	0	0	0;
	70	129	295.887166	105	-11	1.10739	235	1	225	129	0	0	0	0	0	0	0	0	0	0	0;
	71	129	43.6133103	105	-11	1.10739	235	1	225	129	0	0	0	0	0	0	0	0	0	0	0;
	72	129	-518.159374	105	-11	1.04287	235	1	225	129	0	0	0	0	0	0	0	0	0	0	0;
	73	258	-161.700923	204	-21	1.0429	470	1	450	258	0	0	0	0	0	0	0	0	0	0	0;
	74	112	39.7572842	60	0	1.1043	120	1	112	0	0	0	0	0	0	0	0	0	0	0	0;
	94	445	96.8803344	262	-12	1.10247	541.2	1	445	265	0	0	0	0	0	0	0	0	0	0	0;
	95	675	172.07551	393	-18	1.10442	811.8	1	675	385	0	0	0	0	0	0	0	0	0	0	0;
	98	763	-323.39265	332	-62	1.05	861.3	1	763	440	0	0	0	0	0	0	0	0	0	0	0;
	115	18	31.338279	0	0	1.09646	18	1	18	0	0	0	0	0	0	0	0	0	0	0	0;
	122	225	67.1235998	120	-10	1.10922	270.6	1	225	120	0	0	0	0	0	0	0	0	0	0	0;
	123	120	27.5491458	73	-1	1.10624	150	1	120	70	0	0	0	0	0	0	0	0	0	0	0;
	124	120	43.6490708	73	-1	1.10639	150	1	120	70	0	0	0	0	0	0	0	0	0	0	0;
	135	120	27.6170337	80	0	1.09923	150	1	120	70	0	0	0	0	0	0	0	0	0	0	0;
	136	80	-133.254554	31	0	1.07793	117.5	1	110	80	0	0	0	0	0	0	0	0	0	0	0;
	144	215	273.935077	135	-35	1.10999	270.6	1	215	135	0	0	0	0	0	0	0	0	0	0	0;
	145	440	31.3731833	275	-70	1.11	541.2	1	440	270	0	0	0	0	0	0	0	0	0	0	0;
	146	445	-599.085867	277	-72	1.04293	541.2	1	445	270	0	0	0	0	0	0	0	0	0	0	0;
	154	120	-21.5908866	85	-15	1.0916	150	1	120	94	0	0	0	0	0	0	0	0	0	0	0;
	155	120	14.2373896	85	-15	1.0916	150	1	120	94	0	0	0	0	0	0	0	0	0	0	0;
	172	100	267.468856	119	-31	1.06808	252.4	1	232	100	0	0	0	0	0	0	0	0	0	0	0;
	174	90	-209.882542	102	-15	1.03111	252.4	1	222	90	0	0	0	0	0	0	0	0	0	0	0;
	175	190	-116.881938	195	-25	1.03109	504.8	1	454	190	0	0	0	0	0	0	0	0	0	0	0;
	180	522	116.927731	254	-70	1.11	574.6	1	522	208	0	0	0	0	0	0	0	0	0	0	0;
	181	467	480.158943	230	-52	1.11	525.7	1	467	224	0	0	0	0	0	0	0	0	0	0	0;
	182	470	357.597427	290	-76	1.11	527.8	1	470	188	0	0	0	0	0	0	0	0	0	0	0;
	183	412	-623.116701	206	-34	1.04854	476.8	1	412	240	0	0	0	0	0	0	0	0	0	0	0;
	191	200	241.563478	104	-23	1.08579	233.2	1	200	150	0	0	0	0	0	0	0	0	0	0	0;
	192	200	-151.04891	104	-23	1.08551	233.2	1	200	150	0	0	0	0	0	0	0	0	0	0	0;
	193	464	-111.171926	294	-259	1.03481	464	1	464	208	0	0	0	0	0	0	0	0	0	0	0;
	208	188	8.64535524	100	0	1.06766	218.3	1	188	76	0	0	0	0	0	0	0	0	0	0	0;
	240	358	-596.325404	210	-124	1.02448	418	1	358	-400	0	0	0	0	0	0	0	0	0	0	0;
	241	179	-199.2843	160	-100	1.02448	209	1	179	-200	0	0	0	0	0	0	0	0	0	0	0;
	244	220	-10.6863976	100	0	1.11	177.1	1	220	112.5	0	0	0	0	0	0	0	0	0	0	0;
	254	171.5	135.342534	80	0	1.09551	244	1	178	80	0	0	0	0	0	0	0	0	0	0	0;
	267	2.1	0.996650096	1	0	1.05867	0.7	1	2.1	0.5	0	0	0	0	0	0	0	0	0	0	0;
	268	2.1	11.226768	1	0	1.07476	0.7	1	2.1	0.5	0	0	0	0	0	0	0	0	0	0	0;
	295	20	30.786425	15	0	1.08251	20	1	20	4	0	0	0	0	0	0	0	0	0	0	0;
	310	370	-167.696148	190	-19	0.99995	426	1	370	240	0	0	0	0	0	0	0	0	0	0	0;
	376	6.6	21.6363719	5	0	1.09167	8.4	1	6.6	5.4	0	0	0	0	0	0	0	0	0	0	0;
	379	2.7	29.5803656	3	0	1.11164	2.7	1	2.7	0.9	0	0	0	0	0	0	0	0	0	0	0;
	383	87	38.934391	20	0	1.11072	110.9	1	87	31	0	0	0	0	0	0	0	0	0	0	0;
	384	110	78.9310332	30	0	1.11789	137.6	1	110	40	0	0	0	0	0	0	0	0	0	0	0;
	385	95	59.4718149	30	0	1.11718	117.3	1	95	30	0	0	0	0	0	0	0	0	0	0	0;
	387	150	67.6218086	40	0	1.11142	215.8	1	150	80	0	0	0	0	0	0	0	0	0	0	0;
	388	60	58.8191875	40	0	1.11332	68.8	1	60	25	0	0	0	0	0	0	0	0	0	0	0;
	399	2.8	7.42138406	3	0	1.10809	3.8	1	2.8	2	0	0	0	0	0	0	0	0	0	0	0;
	433	1.7	1.23586665	1	0	1.08239	1.9	1	1.7	1.4	0	0	0	0	0	0	0	0	0	0	0;
	455	51.5	61.3882933	57	-22	1.1199	68.8	1	51.5	15	0	0	0	0	0	0	0	0	0	0	0;
	456	55	28.0233395	57	-22	1.11997	68.8	1	55	15	0	0	0	0	0	0	0	0	0	0	0;
	457	132	74.9387948	128	-50	1.11356	156.3	1	132	18	0	0	0	0	0	0	0	0	0	0	0;
	458	110	64.904053	114	-44	1.11649	137.6	1	110	30	0	0	0	0	0	0	0	0	0	0	0;
	478	134	72.0261445	149	-47	1.09916	283.8	1	251	132	0	0	0	0	0	0	0	0	0	0	0;
	479	17	61.0698203	12	0	1.09548	48.5	1	17	10	0	0	0	0	0	0	0	0	0	0	0;
	482	4.4	18.1125419	2	0	1.10618	5.6	1	4.4	3.6	0	0	0	0	0	0	0	0	0	0	0;
	500	0.3	18.3861645	0.2	0	1.0928	0.4	1	0.3	0	0	0	0	0	0	0	0	0	0	0	0;
	522	6.6	52.0514785	4	0	1.08945	8.4	1	6.6	3	0	0	0	0	0	0	0	0	0	0	0;
	527	3.4	18.8380978	3	0	1.11109	4.6	1	3.4	2.8	0	0	0	0	0	0	0	0	0	0	0;
	532	19.5	25.7451086	14.1	11.4	1.09769	19.5	1	19.5	3	0	0	0	0	0	0	0	0	0	0	0;
	543	3	21.942894	2	0	1.06047	4.1	1	3	2.4	0	0	0	0	0	0	0	0	0	0	0;
	597	1.7	14.6706528	0.7	0	1.08727	1.9	1	1.7	1	0	0	0	0	0	0	0	0	0	0	0;
	603	4.4	96.7635688	3	0	1.09264	5.6	1	4.4	3	0	0	0	0	0	0	0	0	0	0	0;
	670	258.7	50.2550411	228	16	1.08156	400	1	292	147	0	0	0	0	0	0	0	0	0	0	0;
	671	317	145.154898	241	18	1.1031	412.5	1	320	148	0	0	0	0	0	0	0	0	0	0	0;
	692	1.5	2.37027028	0.7	0	1.07855	1.9	1	1.5	1.3	0	0	0	0	0	0	0	0	0	0	0;
	694	1.4	2.27027723	1	0	1.06609	3.8	1	1.4	0	0	0	0	0	0	0	0	0	0	0	0;
	700	55	48.0662277	48	4	1.09876	75	1	55	18	0	0	0	0	0	0	0	0	0	0	0;
	701	202	199.391311	119	12	1.09829	233.8	1	202	57	0	0	0	0	0	0	0	0	0	0	0;
	702	93	116.364195	50	6	1.09885	106.5	1	93	27	0	0	0	0	0	0	0	0	0	0	0;
	735	10	37.042389	6	0	1.09514	7.3	1	10	2	0	0	0	0	0	0	0	0	0	0	0;
	752	4.4	27.2592364	4.5	0.2	1.09801	5.8	1	4.4	3.6	0	0	0	0	0	0	0	0	0	0	0;
	766	2.7	7.59594123	0	0	1.09463	5.8	1	2.7	0	0	0	0	0	0	0	0	0	0	0	0;
	775	4.9	1.9845842	0	0	1.09067	4	1	4.9	0	0	0	0	0	0	0	0	0	0	0	0;
	798	128.9	36.2318555	60	0	1.1109	130	1	128.9	0	0	0	0	0	0	0	0	0	0	0	0;
	808	6	0.00180873243	0	0	1.0959	4.7	1	6	0	0	0	0	0	0	0	0	0	0	0	0;
	809	6	5.2581712	0	0	1.09617	5.8	1	6	0	0	0	0	0	0	0	0	0	0	0	0;
	846	130	16.0695021	149	-33	1.10183	235	1	225	130	0	0	0	0	0	0	0	0	0	0	0;
	847	110	99.0639588	149	-33	1.102	235	1	225	110	0	0	0	0	0	0	0	0	0	0	0;
	854	2.5	34.7947204	0	0	1.07784	3	1	2.5	0	0	0	0	0	0	0	0	0	0	0	0;
	860	12	12.8268104	0	0	1.09411	12.4	1	12	0	0	0	0	0	0	0	0	0	0	0	0;
	870	231	91.1582087	60	0	1.11412	239.2	1	231	100	0	0	0	0	0	0	0	0	0	0	0;
	876	21	48.3794533	0	0	1.10623	8.3	1	21	0	0	0	0	0	0	0	0	0	0	0	0;
	890	7	7.44302867	0	0	1.10622	5.6	1	7	0	0	0	0	0	0	0	0	0	0	0	0;
	908	30.4	5.28249102	0	0	1.1056	3	1	30.4	0	0	0	0	0	0	0	0	0	0	0	0;
	913	2	13.0417688	0	0	1.06476	0	1	2	0	0	0	0	0	0	0	0	0	0	0	0;
	934	129	103.551478	105	-11	1.11929	235	1	225	129	0	0	0	0	0	0	0	0	0	0	0;
	936	36	33.6215903	30	0	1.09004	36.8	1	36	0	0	0	0	0	0	0	0	0	0	0	0;
	959	101	56.1719715	30	0	1.10245	100.8	1	101	49	0	0	0	0	0	0	0	0	0	0	0;
	980	12	51.6351546	30	0	1.09713	9.5	1	12	0	0	0	0	0	0	0	0	0	0	0	0;
	984	6	19.5158182	0	0	1.10468	5.9	1	6	1	0	0	0	0	0	0	0	0	0	0	0;
	989	8.3	16.7416249	0	0	1.09354	10.9	1	8.3	0	0	0	0	0	0	0	0	0	0	0	0;
	993	68	12.4522797	23	0	1.10203	52	1	68	5	0	0	0	0	0	0	0	0	0	0	0;
	1008	92	58.1958098	74	-15	1.11134	57.6	1	125	92	0	0	0	0	0	0	0	0	0	0	0;
	1009	84	63.5330033	74	-15	1.09769	57.6	1	125	84	0	0	0	0	0	0	0	0	0	0	0;
	1021	2.5	6.83144743	0	0	1.0998	3.3	1	2.5	0	0	0	0	0	0	0	0	0	0	0	0;
...
];

%% branch data
%	fbus	tbus	r	x	b	rateA	rateB	rateC	ratio	angle	status	angmin	angmax	Pf	Qf	Pt	Qt
mpc.branch = [
	10330	10331	1e-05	8e-05	0	0	19052	19052	1	0	1	-360	360	0.0000	0.0000	0.0000	0.0000;
	10300	10355	0.05932	0.20245	0	0	19052	19052	1	0	1	-360	360	-5.4638	-3.9215	5.4909	4.0141;
	10300	10360	0.02058	0.05185	0	0	19052	19052	1	0	1	-360	360	-28.5362	-9.0785	28.7230	9.5489;
	10367	10201	2e-05	-0.04958	0	0	200	200	1	0	1	-360	360	-96.9701	4.8833	96.9719	-9.3450;
	10367	10202	6e-05	0.08346	0	0	200	200	1	0	1	-360	360	96.9701	-4.8833	-96.9647	12.3939;
	10366	10367	0.0026	0.25917	0	0	200	200	1	0	1	-360	360	0.0000	0.0000	0.0000	0.0000;
	10368	10215	2e-05	-0.04961	0	0	200	200	1	0	1	-360	360	-146.4443	-26.3901	146.4483	16.5990;
	10368	10216	6e-05	0.08373	0	0	200	200	1	0	1	-360	360	146.4443	26.3901	-146.4325	-9.8650;
	10369	10368	0.0026	0.26125	0	0	200	200	1	0	1	-360	360	0.0000	0.0000	0.0000	0.0000;
	10090	10083	8e-05	0.00079	0.41456	9999	1247	1247	0	0	1	-360	360	26.6297	5.2249	-26.6286	-50.1630;
	10138	10164	0.00168	0.01733	0.75504	9999	1746	1746	0	0	1	-360	360	-19.7952	-9.5089	19.8163	-70.5923;
	10139	10109	0.00071	0.00594	0.27872	9999	1386	1386	0	0	1	-360	360	351.4617	-129.1441	-350.5609	106.5581;
	10139	10144	0.00075	0.00681	0.312	9999	1386	1386	0	0	1	-360	360	343.1074	-45.1627	-342.2814	19.0959;
	10139	10153	0.00194	0.02	0.8336	9999	1386	1386	0	0	1	-360	360	103.0105	-28.9726	-102.8147	-58.3096;
	10140	10110	0.00071	0.00594	0.27872	9999	1386	1386	0	0	1	-360	360	403.6926	-125.2124	-402.5399	104.6822;
	10140	10143	0.00075	0.00681	0.312	9999	1386	1386	0	0	1	-360	360	477.9543	-38.8479	-476.3624	19.6985;
	10140	10153	0.00194	0.02	0.8336	9999	1386	1386	0	0	1	-360	360	148.6225	-26.4989	-148.2191	-58.7418;
	10141	10153	0.00233	0.01696	0.70784	9999	1746	1746	0	0	1	-360	360	117.0653	-170.1620	-116.3467	101.3618;
	10090	10085	0.00017	0.00148	1.23008	9999	1247	1247	0	0	1	-360	360	-23.6016	-19.1214	23.6060	-114.1598;
	10141	10158	0.00204	0.01707	0.71344	9999	1746	1746	0	0	1	-360	360	141.7781	-73.8193	-141.3506	3.9680;
	10141	10158	0.00204	0.01707	0.71344	9999	1746	1746	0	0	1	-360	360	141.7781	-73.8193	-141.3506	3.9680;
	10143	10144	1e-05	6e-05	0	0	1732	1732	1	0	1	-360	360	-40.9319	-28.0977	40.9321	28.0991;
	10143	10153	0.00169	0.01381	0.6496	9999	1386	1386	0	0	1	-360	360	-18.8629	0.5617	18.8883	-69.9176;
	10143	10156	0.00119	0.00969	0.4544	9999	1386	1386	0	0	1	-360	360	411.5273	-26.3091	-409.6533	-7.1187;
	10144	10126	0.00306	0.02537	1.19168	9999	1386	1386	0	0	1	-360	360	49.2167	48.8072	-48.7852	-169.8542;
	10144	10153	0.00169	0.01381	0.6496	9999	1386	1386	0	0	1	-360	360	-18.6906	0.6911	18.7160	-70.0481;
	10144	10165	0.00244	0.02044	0.9584	9999	831	831	0	0	1	-360	360	237.8083	-79.0411	-236.5081	-13.2314;
	10091	10090	9e-05	0.00106	1.10432	9999	1247	1247	0	0	1	-360	360	-66.4820	-77.2157	66.4860	-42.4739;
	10145	10147	0.00194	0.01606	0.75456	9999	1787	1787	0	0	1	-360	360	175.2032	-159.0541	-174.3618	86.3837;
	10145	10158	0.00189	0.01232	0.61088	9999	1746	1746	0	0	1	-360	360	-119.0610	11.8061	119.3533	-73.1864;
	10171	10094	0	6e-05	0	0	1593	1593	1	0	1	-360	360	142.9923	-9797.8784	-142.9923	9852.2301;
	10145	10082	0.00091	0.00923	0.39197	9999	1642	1642	0	0	1	-360	360	139.8918	67.1120	-139.6534	-105.0565;
	10145	10082	0.00091	0.00923	0.39197	9999	1642	1642	0	0	1	-360	360	139.8918	67.1120	-139.6534	-105.0565;
	10146	10154	0.00503	0.01845	0.05812	9999	408	408	0	0	1	-360	360	80.3133	14.8692	-80.0000	-20.0000;
	10172	10095	0	6e-05	0	0	1386	1386	1	0	1	-360	360	-138.3416	43.9874	138.3416	-43.9754;
	10147	10153	0.00156	0.01288	0.6032	9999	1386	1386	0	0	1	-360	360	-373.4278	43.1555	375.5404	-90.1986;
	10173	10095	0	6e-05	0	0	1386	1386	1	0	1	-360	360	-138.3416	43.9874	138.3416	-43.9754;
	10147	10153	0.00156	0.01288	0.6032	9999	1386	1386	0	0	1	-360	360	-373.4278	43.1555	375.5404	-90.1986;
	10174	10096	2e-05	0.00016	0.0008	9999	1386	1386	0	0	1	-360	360	-292.4311	-383.0900	292.4757	383.3634;
	10147	10161	0.00113	0.00962	0.4528	9999	1787	1787	0	0	1	-360	360	-124.9335	92.2100	125.2411	-137.6853;
	10176	10098	0.00029	0.00219	0.11056	9999	1386	1386	0	0	1	-360	360	547.0732	106.8181	-546.2200	-112.0557;
	10177	10098	0.00029	0.00219	0.11056	9999	1386	1386	0	0	1	-360	360	547.0732	106.8181	-546.2200	-112.0557;
	10147	10169	0.00041	0.00423	0.18496	9999	1386	1386	0	0	1	-360	360	-158.3881	111.6228	158.5406	-129.7915;
	10147	10170	0.00041	0.00423	0.18496	9999	1386	1386	0	0	1	-360	360	-158.3881	111.6228	158.5406	-129.7915;
	10091	10090	9e-05	0.00106	1.10432	9999	1247	1247	0	0	1	-360	360	-66.4820	-77.2157	66.4860	-42.4739;
	10147	10037	0.00105	0.00925	0.37437	9999	1386	1386	0	0	1	-360	360	553.8540	-314.3514	-550.0005	307.3131;
	10147	10037	0.00105	0.00925	0.37437	9999	1386	1386	0	0	1	-360	360	553.8540	-314.3514	-550.0005	307.3131;
	10148	10136	0.00293	0.01074	0.03436	9999	408	408	0	0	1	-360	360	62.9147	1.1247	-62.8037	-4.3080;
	10148	10149	2e-05	0.0001	0	0	762	762	1	0	1	-360	360	52.3311	-4.5023	-52.3305	4.5049;
	10149	10136	0.00293	0.01074	0.03436	9999	408	408	0	0	1	-360	360	62.4391	1.1957	-62.3298	-4.3850;
	10149	10162	0.01595	0.06457	0.17037	9999	301	301	0	0	1	-360	360	67.1158	15.0599	-66.3420	-29.3371;
	10151	10147	0.00188	0.01925	0.8432	9999	1386	1386	0	0	1	-360	360	228.1877	-26.6803	-227.2800	-54.9955;
	10152	10164	0.00364	0.03742	1.6384	9999	1746	1746	0	0	1	-360	360	185.8883	-52.6766	-184.6945	-111.5211;
	10156	10165	0.00131	0.011	0.5168	9999	831	831	0	0	1	-360	360	76.7783	-81.1274	-76.6708	26.6067;
	10158	10081	0.00127	0.0132	0.5505	9999	1746	1746	0	0	1	-360	360	-297.4432	-145.0666	298.6982	100.1410;
	10091	10164	0.0023	0.02084	0.8752	9999	1746	1746	0	0	1	-360	360	-38.8974	17.9473	39.0202	-110.6027;
	10159	10163	0.00517	0.03967	0.12439	9999	457	457	0	0	1	-360	360	135.5884	11.6618	-134.6363	-16.8337;
	10159	10163	0.00517	0.03967	0.12439	9999	457	457	0	0	1	-360	360	135.5884	11.6618	-134.6363	-16.8337;
	10160	10137	0.0099	0.03659	0.11674	9999	343	343	0	0	1	-360	360	-46.2199	80.5956	47.0714	-90.3576;
	10161	10145	0.00088	0.007	0.3296	9999	1787	1787	0	0	1	-360	360	-227.7152	110.0365	228.2845	-139.9757;
	10162	10122	0.00527	0.0193	0.06156	9999	408	408	0	0	1	-360	360	95.1577	22.4545	-94.6445	-26.6512;
	10162	10122	0.00527	0.0193	0.06156	9999	408	408	0	0	1	-360	360	95.1577	22.4545	-94.6445	-26.6512;
	10164	10165	0.00323	0.03369	1.40518	9999	1746	1746	0	0	1	-360	360	40.5202	-105.4516	-40.4406	-43.8026;
	10164	10080	6e-05	0.00059	0.02467	9999	1746	1746	0	0	1	-360	360	-127.4348	84.7742	127.4482	-87.2533;
	10092	10089	0.00046	0.00474	0.01943	9999	960	960	0	0	1	-360	360	-36.6450	-33.3399	36.6553	31.3735;
	10164	10080	6e-05	0.00059	0.02467	9999	1746	1746	0	0	1	-360	360	-127.4348	84.7742	127.4482	-87.2533;
	10165	10091	0.00067	0.00696	0.2904	9999	1746	1746	0	0	1	-360	360	-77.6141	-55.5752	77.6615	24.6842;
	10167	10169	8e-05	0.00067	0.02976	9999	1884	1884	0	0	1	-360	360	-132.8044	-40.1928	132.8188	37.1514;
	10168	10170	8e-05	0.00067	0.02976	9999	1884	1884	0	0	1	-360	360	-132.8044	-40.1928	132.8188	37.1514;
	10310	10311	8e-05	0.00041	0	0	111	111	1	0	1	-360	360	0.0000	0.0000	0.0000	0.0000;
	10330	10359	0.01322	0.04793	0.0092	9999	204	204	0	0	1	-360	360	-133.5000	-25.5000	136.1051	34.0539;
	10331	10359	0.01322	0.04793	0.0092	9999	204	204	0	0	1	-360	360	-133.5000	-25.5000	136.1051	34.0539;
	10092	10157	0.00627	0.02339	0.07357	9999	343	343	0	0	1	-360	360	-20.9249	-8.6314	20.9519	0.8796;
	10346	10347	8e-05	0.00041	0	0	150	150	1	0	1	-360	360	0.0000	0.0000	0.0000	0.0000;
	10359	10310	0.02975	0.10992	0.0219	9999	204	204	0	0	1	-360	360	28.7562	4.7870	-28.5000	-6.0000;
	10359	10311	0.02975	0.10992	0.0219	9999	204	204	0	0	1	-360	360	28.7562	4.7870	-28.5000	-6.0000;
	10359	10346	0.01157	0.04298	0.00859	9999	183	183	0	0	1	-360	360	68.0440	8.1708	-67.5000	-7.0000;
	10359	10347	0.01157	0.04298	0.00859	9999	183	183	0	0	1	-360	360	68.0440	8.1708	-67.5000	-7.0000;
	10301	10319	0.01298	0.09959	0.01949	9999	229	229	0	0	1	-360	360	-0.7759	12.6389	0.7994	-14.4387;
	10301	10319	0.01298	0.09959	0.01949	9999	229	229	0	0	1	-360	360	-0.7759	12.6389	0.7994	-14.4387;
	10301	10327	0.03223	0.16033	0.03037	9999	229	229	0	0	1	-360	360	54.1928	27.9891	-53.0000	-25.0000;
	10093	10088	0.00046	0.00474	0.01943	9999	960	960	0	0	1	-360	360	-27.2241	-24.8770	27.2297	22.8521;
	10301	10327	0.03223	0.16033	0.03037	9999	229	229	0	0	1	-360	360	54.1928	27.9891	-53.0000	-25.0000;
	10313	10314	1e-05	0.00041	0	0	381	381	1	0	1	-360	360	-7.5954	-1.4228	7.5954	1.4231;
	10315	10316	1e-05	0.00041	0	0	191	191	1	0	1	-360	360	0.2582	-0.6307	-0.2582	0.6307;
	10315	10317	1e-05	0.00041	0	0	191	191	1	0	1	-360	360	-0.5183	1.2651	0.5183	-1.2651;
	10339	10313	0.00012	0.00118	0.00028	9999	389	389	0	0	1	-360	360	-7.5953	-1.4497	7.5954	1.4228;
	10339	10340	1e-05	0.00041	0	0	381	381	1	0	1	-360	360	-41.2422	-10.5303	41.2424	10.5378;
	10340	10314	7e-05	0.00066	0.00016	9999	389	389	0	0	1	-360	360	7.5955	1.4077	-7.5954	-1.4231;
	10354	10353	1e-05	0.00041	0	0	381	381	1	0	1	-360	360	0.0000	0.0000	0.0000	0.0000;
	10303	10304	8e-05	0.00041	0	0	229	229	1	0	1	-360	360	0.0000	0.0000	0.0000	0.0000;
	10093	10157	0.0064	0.02314	0.07299	9999	343	343	0	0	1	-360	360	-5.9702	-0.2917	5.9731	-7.5097;
	10322	10323	8e-05	0.00041	0	0	114	114	1	0	1	-360	360	0.0000	0.0000	0.0000	0.0000;
	10099	10115	0.00014	0.00127	0.0568	9999	1746	1746	0	0	1	-360	360	-280.5453	321.8765	280.8000	-325.2933;
	10084	10087	7e-05	0.00077	0.4808	9999	1351	1351	0	0	1	-360	360	-270.6364	-105.1287	270.6877	53.5023;
	10099	10116	0.00014	0.00127	0.0568	9999	1746	1746	0	0	1	-360	360	-280.5453	321.8765	280.8000	-325.2933;
	10099	10145	0.00091	0.00842	0.37584	9999	1386	1386	0	0	1	-360	360	270.9411	-203.2668	-269.9758	173.6538;
	10099	10145	0.00091	0.00842	0.37584	9999	1386	1386	0	0	1	-360	360	270.9411	-203.2668	-269.9758	173.6538;
	10099	10158	0.00115	0.01064	0.47546	9999	1884	1884	0	0	1	-360	360	74.4452	-129.2937	-74.2564	82.4222;
	10099	10158	0.00115	0.01064	0.47546	9999	1884	1884	0	0	1	-360	360	74.4452	-129.2937	-74.2564	82.4222;
	10099	10079	0.00206	0.01905	0.85158	9999	1884	1884	0	0	1	-360	360	-222.1132	-52.2587	223.1191	-25.2445;
	10099	10079	0.00206	0.01905	0.85158	9999	1884	1884	0	0	1	-360	360	-222.1132	-52.2587	223.1191	-25.2445;
	10100	10118	0.00034	0.00354	0.1544	9999	1732	1732	0	0	1	-360	360	-190.2734	3.4560	190.3875	-18.9953;
	10100	10118	0.00034	0.00354	0.1544	9999	1732	1732	0	0	1	-360	360	-190.2734	3.4560	190.3875	-18.9953;
	10100	10151	0.00075	0.00744	0.3264	9999	1386	1386	0	0	1	-360	360	575.9558	-83.0288	-573.6292	70.7096;
	10084	10087	7e-05	0.00076	0.51264	9999	1351	1351	0	0	1	-360	360	-274.2624	-107.5617	274.3151	52.4864;
	10100	10151	0.00075	0.00744	0.3264	9999	1386	1386	0	0	1	-360	360	575.9558	-83.0288	-573.6292	70.7096;
	10100	10153	0.00144	0.01506	0.6592	9999	1386	1386	0	0	1	-360	360	247.9176	0.8508	-247.0827	-62.9638;
	10100	10153	0.00144	0.01506	0.6592	9999	1386	1386	0	0	1	-360	360	247.9176	0.8508	-247.0827	-62.9638;
	10101	10135	0.01399	0.05116	0.16408	9999	343	343	0	0	1	-360	360	-260.7725	62.9836	270.2420	-46.2417;
	10101	10137	0.0049	0.01791	0.0574	9999	343	343	0	0	1	-360	360	260.7725	-62.9836	-257.5272	68.6460;
	10102	10166	0.00909	0.03285	0.10503	9999	343	343	0	0	1	-360	360	-60.0000	-12.5000	60.3099	2.2988;
	10102	10166	0.00909	0.03285	0.10503	9999	343	343	0	0	1	-360	360	-60.0000	-12.5000	60.3099	2.2988;
	10103	10104	0.00125	0.00625	0	0	1386	1386	1	0	1	-360	360	-338.4752	-1.8979	339.8000	8.5220;
	10103	10120	0.00061	0.00564	0.252	9999	1884	1884	0	0	1	-360	360	162.9801	-27.8228	-162.8290	1.9820;
	10103	10120	0.00061	0.00564	0.252	9999	1884	1884	0	0	1	-360	360	162.9801	-27.8228	-162.8290	1.9820;
	10085	10084	8e-05	0.00095	0.58816	9999	1351	1351	0	0	1	-360	360	-269.3996	-89.4290	269.4556	26.3421;
	10103	10150	0.00013	0.00119	0.05328	9999	1884	1884	0	0	1	-360	360	-201.5508	-19.1959	201.6000	13.8841;
	10105	10148	0.00492	0.01798	0.05731	9999	408	408	0	0	1	-360	360	-80.7727	-34.4753	81.1328	29.8465;
	10105	10149	0.00492	0.01798	0.05731	9999	408	408	0	0	1	-360	360	-80.4921	-34.5229	80.8501	29.8868;
	10106	10147	0.00131	0.01339	0.58672	9999	1386	1386	0	0	1	-360	360	129.2117	-37.9581	-129.0073	-22.8790;
	10106	10151	0.00056	0.00584	0.25616	9999	1386	1386	0	0	1	-360	360	-452.7302	-73.8450	453.8186	57.5412;
	10107	10109	0.00014	0.00127	0.0568	9999	1386	1386	0	0	1	-360	360	-112.9197	11.5958	112.9364	-17.6085;
	10108	10110	0.00014	0.00127	0.0568	9999	1386	1386	0	0	1	-360	360	-119.5023	10.4139	119.5209	-16.4164;
	10111	10158	0.00118	0.01186	0.50192	9999	1746	1746	0	0	1	-360	360	185.8313	57.0335	-185.3677	-104.8150;
	10111	10081	0.00051	0.00528	0.22019	9999	1746	1746	0	0	1	-360	360	-329.0718	-132.4144	329.6649	115.1076;
	10112	10159	0.00153	0.00561	0.01801	9999	408	408	0	0	1	-360	360	-58.7323	-23.5105	58.7922	21.9046;
	10085	10086	0	6e-05	0	0	2079	2079	1	0	1	-360	360	84.1935	19.9887	-84.1935	-19.9846;
	10112	10159	0.00109	0.004	0.01284	9999	408	408	0	0	1	-360	360	-82.3700	-32.3646	82.4540	31.3712;
	10112	10159	0.00109	0.004	0.01284	9999	408	408	0	0	1	-360	360	-82.3700	-32.3646	82.4540	31.3712;
	10113	10141	0.00031	0.00286	0.12781	9999	1884	1884	0	0	1	-360	360	-527.9164	330.0401	529.0838	-332.4763;
	10113	10153	0.00037	0.00343	0.15334	9999	1884	1884	0	0	1	-360	360	153.9241	-388.8738	-153.3243	378.2765;
	10114	10127	0.01116	0.04091	0.13068	9999	366	366	0	0	1	-360	360	13.7179	-4.7921	-13.6969	-8.3915;
	10183	10198	0.00084	0.01065	0.39616	9999	831	831	0	0	1	-360	360	72.8763	-30.5248	-72.8352	-12.6261;
	10183	10217	0.00146	0.01809	0.63888	9999	831	831	0	0	1	-360	360	188.2612	-49.8847	-187.7888	-14.6964;
	10184	10199	0.01019	0.06849	0.1012	9999	326	326	0	0	1	-360	360	-124.2270	-21.0410	125.6828	19.4542;
	10184	10209	0.01204	0.06105	0.08659	9999	274	274	0	0	1	-360	360	18.5447	-20.2760	-18.4805	11.0391;
	10184	10216	0.01029	0.0401	0.10522	9999	274	274	0	0	1	-360	360	35.6824	-7.6829	-35.5626	-3.3634;
	10185	10205	0.00065	0.00657	0.2224	9999	831	831	0	0	1	-360	360	0.0000	0.0000	0.0009	-24.4686;
	10186	10199	0.00155	0.01508	0.02396	9999	535	535	0	0	1	-360	360	342.7000	91.5984	-341.0529	-78.3734;
	10187	10200	0.00156	0.01518	0.02415	9999	535	535	0	0	1	-360	360	342.7000	90.9092	-341.0442	-77.6190;
	10188	10183	0.00057	0.00724	0.26592	9999	831	831	0	0	1	-360	360	347.8000	-93.1930	-347.1375	72.4095;
	10189	10198	0.00028	0.00346	0.1312	9999	831	831	0	0	1	-360	360	272.8000	-165.1598	-272.5455	153.9000;
	10192	10193	0	0.0001	0	0	762	762	1	0	1	-360	360	43.6912	3.7125	-43.6912	-3.7107;
	10192	10222	0.00488	0.0332	0.05542	9999	346	346	0	0	1	-360	360	67.9088	14.1023	-67.6879	-18.5533;
	10196	10208	0.00059	0.00752	0.26672	9999	1386	1386	0	0	1	-360	360	-124.5333	-105.4825	124.6629	78.0312;
	10197	10215	0.00092	0.01193	0.47104	9999	1109	1109	0	0	1	-360	360	39.0622	-72.6077	-39.0307	21.4188;
	10198	10208	0.00081	0.00867	0.27808	9999	831	831	0	0	1	-360	360	296.9314	-16.9069	-296.2838	-6.7702;
	10199	10200	0	0.0001	0	0	762	762	1	0	1	-360	360	-341.0442	-77.5126	341.0442	77.6190;
	10199	10211	0.00752	0.04678	0.06534	9999	323	323	0	0	1	-360	360	185.4273	-2.6708	-183.1796	9.2091;
	10201	10213	0.00112	0.01179	0.35472	9999	738	738	0	0	1	-360	360	225.6059	-111.4278	-224.9741	80.3561;
	10201	10220	0.00156	0.01658	0.4112	9999	738	738	0	0	1	-360	360	-157.3432	-64.7504	157.7369	25.1578;
	10202	10193	0.01	0.06793	0.1134	9999	274	274	0	0	1	-360	360	-43.5060	-14.6146	43.6912	3.7107;
	10202	10203	0	0.0001	0	0	762	762	1	0	1	-360	360	0.0000	0.0000	0.0000	0.0000;
	10202	10206	0.03436	0.16971	0.24563	9999	271	271	0	0	1	-360	360	55.1408	-20.1850	-54.1404	-0.8962;
	10202	10222	0.00595	0.04035	0.06732	9999	274	274	0	0	1	-360	360	-17.6702	-5.5943	17.6879	-1.4467;
	10204	10210	0.00214	0.02232	0.71616	9999	831	831	0	0	1	-360	360	128.7648	-70.9102	-128.4170	-3.4118;
	10205	10213	0.00154	0.01628	0.52272	9999	831	831	0	0	1	-360	360	-35.8460	59.9417	35.9741	-115.3561;
	10205	10215	0.00078	0.00855	0.2736	9999	1109	1109	0	0	1	-360	360	-42.0534	-16.0858	42.0660	-13.8788;
	10205	10217	0.00108	0.01152	0.352	9999	1109	1109	0	0	1	-360	360	-76.1015	-25.3873	76.1588	-12.7699;
	10206	10216	0.01105	0.05364	0.07957	9999	271	271	0	0	1	-360	360	-95.8596	-14.1038	96.8305	10.2699;
	10207	10210	0.00185	0.01772	0.57632	9999	831	831	0	0	1	-360	360	75.6852	-48.4414	-75.5830	-13.4882;
	10207	10220	0.00156	0.01757	0.552	9999	831	831	0	0	1	-360	360	-188.6852	33.4414	189.2526	-86.7884;
	10208	10214	0.00058	0.0082	0.28864	9999	831	831	0	0	1	-360	360	106.6209	-82.2609	-106.5376	51.5825;
	10212	10216	0.00504	0.0312	0.05087	9999	137	137	0	0	1	-360	360	-41.5000	-9.5000	41.5823	4.4792;
	10212	10216	0.00504	0.0312	0.05087	9999	137	137	0	0	1	-360	360	-41.5000	-9.5000	41.5823	4.4792;
	10215	10217	0.00033	0.00346	0.1112	9999	1386	1386	0	0	1	-360	360	-149.4835	-24.1389	149.5515	12.5998;
	10218	10190	0.0001	0.00123	0.04912	9999	831	831	0	0	1	-360	360	-371.3725	23.6644	371.5000	-27.4386;
	10218	10197	0.00086	0.01148	0.4	9999	1386	1386	0	0	1	-360	360	334.9569	-52.3172	-334.0622	20.7077;
	10218	10204	0.00026	0.00286	0.08848	9999	866	866	0	0	1	-360	360	159.1887	48.6896	-159.1212	-57.5529;
	10218	10219	0	6e-05	0	0	1386	1386	1	0	1	-360	360	-122.7730	-20.0368	122.7730	20.0453;
	10219	10191	0.0001	0.00124	0.04976	9999	831	831	0	0	1	-360	360	-370.6730	24.3404	370.8000	-28.1770;
	10219	10198	0.00104	0.01237	0.37936	9999	1109	1109	0	0	1	-360	360	97.4171	-89.4501	-97.2811	49.5243;
	10219	10204	0.00026	0.00307	0.1088	9999	866	866	0	0	1	-360	360	150.4829	45.0645	-150.4225	-56.1628;
	10220	10194	9e-05	0.00101	0.03168	9999	499	499	0	0	1	-360	360	-64.7906	82.1858	64.8000	-85.4818;
	10220	10195	9e-05	0.00097	0.03072	9999	499	499	0	0	1	-360	360	0.0000	-3.3010	-0.0000	-0.0000;
	10114	10128	0.01116	0.04091	0.13068	9999	366	366	0	0	1	-360	360	13.7179	-4.7921	-13.6969	-8.3915;
	10180	10064	0.01085	0.05289	0.08301	9999	269	269	0	0	1	-360	360	-8.0684	42.9956	8.2839	-51.6177;
	10181	10064	0.01085	0.05289	0.08301	9999	269	269	0	0	1	-360	360	-8.0684	42.9956	8.2839	-51.6177;
	10182	10063	0.00065	0.00924	0.276	9999	1386	1386	0	0	1	-360	360	-96.3829	22.4084	96.4453	-52.2444;
	10178	10204	0.00078	0.00875	0.13616	9999	1330	1330	0	0	1	-360	360	-10.5962	-164.1402	10.7790	151.6259;
	10114	10148	0.00864	0.03777	0.0848	9999	301	301	0	0	1	-360	360	-4.2755	-42.7525	4.4026	34.5566;
	10179	10196	0.00036	0.00429	0.1168	9999	1330	1330	0	0	1	-360	360	-232.3526	-22.4620	232.5333	11.9794;
	10039	10078	0.00101	0.01281	0.6424	9999	1386	1386	0	0	1	-360	360	2.3352	42.1945	-2.2801	-112.4361;
	10039	10038	0.00106	0.01368	0.5168	9999	1386	1386	0	0	1	-360	360	-2.3352	-42.1945	2.3370	-15.4653;
	10043	10209	0.00839	0.04277	0.06002	9999	274	274	0	0	1	-360	360	41.6733	15.0831	-41.5195	-21.0391;
	10043	10044	0.00839	0.04277	0.06026	9999	269	269	0	0	1	-360	360	-41.6733	-15.0831	41.8118	8.9028;
	10049	10217	0.00075	0.0072	0.21824	9999	1386	1386	0	0	1	-360	360	126.0357	-41.8118	-125.9214	18.8665;
	10049	10048	0.00068	0.00728	0.2176	9999	1386	1386	0	0	1	-360	360	-126.0357	41.8118	126.1518	-64.4492;
	10057	10078	0.00067	0.00819	0.47648	9999	1663	1663	0	0	1	-360	360	-207.3008	67.2148	207.6140	-115.8212;
	10057	10056	0.00075	0.0091	0.356	9999	1732	1732	0	0	1	-360	360	207.3008	-67.2148	-206.9942	31.4353;
	10114	10155	0.0045	0.01649	0.05256	9999	301	301	0	0	1	-360	360	62.3459	39.2449	-62.0962	-43.6245;
	10066	10198	0.00118	0.01209	0.3728	9999	1323	1323	0	0	1	-360	360	-208.1782	43.7768	208.6819	-79.9125;
	10066	10065	0.00118	0.01209	0.3728	9999	1386	1386	0	0	1	-360	360	208.1782	-43.7768	-207.7130	7.0360;
	10067	10211	0.00627	0.04117	0.06002	9999	326	326	0	0	1	-360	360	-41.0698	14.0318	41.1796	-20.1091;
	10067	10064	0.00627	0.04117	0.05808	9999	318	318	0	0	1	-360	360	41.0698	-14.0318	-40.9705	8.0685;
	10068	10214	0.00069	0.0089	0.32384	9999	831	831	0	0	1	-360	360	-89.4779	22.3583	89.5376	-57.5825;
	10068	10065	0.00069	0.0089	0.324	9999	866	866	0	0	1	-360	360	89.4779	-22.3583	-89.4282	-13.1013;
	10221	10220	0.00053	0.00544	0.06784	9999	831	831	0	0	1	-360	360	282.5926	13.9896	-282.1989	-17.2541;
	10221	10223	0.00052	0.00544	0.136	9999	1247	1247	0	0	1	-360	360	-282.5926	-13.9896	282.9776	3.3132;
...
];

%%-----  OPF Data  -----%%
%% generator cost data
%	1	startup	shutdown	n	x1	y1	...	xn	yn
%	2	startup	shutdown	n	c(n-1)	...	c0
mpc.gencost = [
	2	0	0	3	0	198.86	0;
	2	0	0	3	0	240.26	0;
	2	0	0	3	0	240.26	0;
	2	0	0	3	0	240.26	0;
	2	0	0	3	0	240.26	0;
	2	0	0	3	0	240.26	0;
	2	0	0	3	0	240.26	0;
	2	0	0	3	0	240.26	0;
	2	0	0	3	0	240.26	0;
	2	0	0	3	0	240.26	0;
	2	0	0	3	0	240.26	0;
	2	0	0	3	0	240.26	0;
	2	0	0	3	0	240.26	0;
	2	0	0	3	0	240.26	0;
	2	0	0	3	0	240.26	0;
	2	0	0	3	0	240.26	0;
	2	0	0	3	0	240.26	0;
	2	0	0	3	0	240.26	0;
	2	0	0	3	0	240.26	0;
	2	0	0	3	0	240.26	0;
	2	0	0	3	0	240.26	0;
	2	0	0	3	0	240.26	0;
	2	0	0	3	0	236.7	0;
	2	0	0	3	0	236.7	0;
	2	0	0	3	0	236.7	0;
	2	0	0	3	0	236.7	0;
	2	0	0	3	0	236.7	0;
	2	0	0	3	0	236.7	0;
	2	0	0	3	0	236.7	0;
	2	0	0	3	0	236.7	0;
	2	0	0	3	0	236.7	0;
	2	0	0	3	0	100	0;
	2	0	0	3	0	198.86	0;
	2	0	0	3	0	198.86	0;
	2	0	0	3	0	198.86	0;
	2	0	0	3	0	198.86	0;
	2	0	0	3	0	198.86	0;
	2	0	0	3	0	198.86	0;
	2	0	0	3	0	198.86	0;
	2	0	0	3	0	198.86	0;
	2	0	0	3	0	198.86	0;
	2	0	0	3	0	198.86	0;
	2	0	0	3	0	198.86	0;
	2	0	0	3	0	198.86	0;
	2	0	0	3	0	198.86	0;
	2	0	0	3	0	198.86	0;
	2	0	0	3	0	198.86	0;
	2	0	0	3	0	198.86	0;
	2	0	0	3	0	198.86	0;
	2	0	0	3	0	198.86	0;
	2	0	0	3	0	198.86	0;
	2	0	0	3	0	198.86	0;
	2	0	0	3	0	198.86	0;
	2	0	0	3	0	198.86	0;
	2	0	0	3	0	198.86	0;
	2	0	0	3	0	198.86	0;
	2	0	0	3	0	198.86	0;
	2	0	0	3	0	198.86	0;
	2	0	0	3	0	198.86	0;
	2	0	0	3	0	198.86	0;
	2	0	0	3	0	198.86	0;
	2	0	0	3	0	198.86	0;
	2	0	0	3	0	198.86	0;
	2	0	0	3	0	198.86	0;
	2	0	0	3	0	198.86	0;
	2	0	0	3	0	198.86	0;
	2	0	0	3	0	198.86	0;
	2	0	0	3	0	198.86	0;
	2	0	0	3	0	198.86	0;
	2	0	0	3	0	198.86	0;
	2	0	0	3	0	198.86	0;
	2	0	0	3	0	198.86	0;
	2	0	0	3	0	198.86	0;
	2	0	0	3	0	198.86	0;
	2	0	0	3	0	198.86	0;
	2	0	0	3	0	198.86	0;
	2	0	0	3	0	198.86	0;
	2	0	0	3	0	198.86	0;
	2	0	0	3	0	198.86	0;
	2	0	0	3	0	198.86	0;
	2	0	0	3	0	198.86	0;
	2	0	0	3	0	198.86	0;
	2	0	0	3	0	198.86	0;
	2	0	0	3	0	198.86	0;
	2	0	0	3	0	198.86	0;
	2	0	0	3	0	198.86	0;
	2	0	0	3	0	198.86	0;
	2	0	0	3	0	198.86	0;
	2	0	0	3	0	198.86	0;
	2	0	0	3	0	198.86	0;
	2	0	0	3	0	198.86	0;
	2	0	0	3	0	198.86	0;
	2	0	0	3	0	198.86	0;
	2	0	0	3	0	198.86	0;
	2	0	0	3	0	158.61	0;
	2	0	0	3	0	158.61	0;
	2	0	0	3	0	107.03	0;
	2	0	0	3	0	107.03	0;
	2	0	0	3	0	107.03	0;
	2	0	0	3	0	107.03	0;
	2	0	0	3	0	107.03	0;
	2	0	0	3	0	107.03	0;
	2	0	0	3	0	107.03	0;
	2	0	0	3	0	107.03	0;
	2	0	0	3	0	107.03	0;
	2	0	0	3	0	107.03	0;
	2	0	0	3	0	107.03	0;
	2	0	0	3	0	143.52	0;
	2	0	0	3	0	143.52	0;
	2	0	0	3	0	143.52	0;
	2	0	0	3	0	143.52	0;
	2	0	0	3	0	143.52	0;
	2	0	0	3	0	143.52	0;
	2	0	0	3	0	143.52	0;
	2	0	0	3	0	148.16	0;
	2	0	0	3	0	148.16	0;
	2	0	0	3	0	148.16	0;
	2	0	0	3	0	148.16	0;
	2	0	0	3	0	148.16	0;
	2	0	0	3	0	0	0;
	2	0	0	3	0	134.04	0;
	2	0	0	3	0	134.04	0;
	2	0	0	3	0	134.04	0;
	2	0	0	3	0	134.04	0;
	2	0	0	3	0	134.04	0;
	2	0	0	3	0	126.62	0;
	2	0	0	3	0	126.62	0;
	2	0	0	3	0	0	0;
	2	0	0	3	0	0	0;
	2	0	0	3	0	130.49	0;
	2	0	0	3	0	132.33	0;
	2	0	0	3	0	132.33	0;
	2	0	0	3	0	136.59	0;
	2	0	0	3	0	139.96	0;
	2	0	0	3	0	128.21	0;
	2	0	0	3	0	128.21	0;
	2	0	0	3	0	128.21	0;
	2	0	0	3	0	128.21	0;
	2	0	0	3	0	128.21	0;
	2	0	0	3	0	129.99	0;
	2	0	0	3	0	129.99	0;
	2	0	0	3	0	163.16	0;
	2	0	0	3	0	163.16	0;
	2	0	0	3	0	163.16	0;
	2	0	0	3	0	163.16	0;
	2	0	0	3	0	139.01	0;
	2	0	0	3	0	139.01	0;
	2	0	0	3	0	139.01	0;
	2	0	0	3	0	139.01	0;
	2	0	0	3	0	139.01	0;
	2	0	0	3	0	139.01	0;
	2	0	0	3	0	139.01	0;
	2	0	0	3	0	139.01	0;
	2	0	0	3	0	125.48	0;
	2	0	0	3	0	125.48	0;
	2	0	0	3	0	125.48	0;
	2	0	0	3	0	137.4	0;
	2	0	0	3	0	137.4	0;
	2	0	0	3	0	137.4	0;
	2	0	0	3	0	137.4	0;
	2	0	0	3	0	0	0;
	2	0	0	3	0	0	0;
	2	0	0	3	0	0	0;
	2	0	0	3	0	0	0;
	2	0	0	3	0	0	0;
	2	0	0	3	0	0	0;
	2	0	0	3	0	0	0;
	2	0	0	3	0	0	0;
	2	0	0	3	0	0	0;
	2	0	0	3	0	0	0;
	2	0	0	3	0	0	0;
	2	0	0	3	0	107.03	0;
	2	0	0	3	0	0	0;
	2	0	0	3	0	0	0;
	2	0	0	3	0	0	0;
	2	0	0	3	0	0	0;
	2	0	0	3	0	0	0;
	2	0	0	3	0	0	0;
	2	0	0	3	0	0	0;
	2	0	0	3	0	0	0;
	2	0	0	3	0	0	0;
	2	0	0	3	0	0	0;
	2	0	0	3	0	0	0;
	2	0	0	3	0	0	0;
	2	0	0	3	0	0	0;
	2	0	0	3	0	0	0;
	2	0	0	3	0	0	0;
	2	0	0	3	0	0	0;
	2	0	0	3	0	0	0;
	2	0	0	3	0	0	0;
	2	0	0	3	0	0	0;
	2	0	0	3	0	0	0;
	2	0	0	3	0	0	0;
	2	0	0	3	0	0	0;
	2	0	0	3	0	158.61	0;
	2	0	0	3	0	158.61	0;
	2	0	0	3	0	158.61	0;
	2	0	0	3	0	0	0;
	2	0	0	3	0	0	0;
	2	0	0	3	0	0	0;
...
];
